*Node, NSET=Nall
1, 0, 0, 0
2, 0, 30, 0
3, 100, 0, 0
4, 100, 30, 0
5, 0, 1, 0
6, 0, 2, 0
7, 0, 3, 0
8, 0, 4, 0
9, 0, 5, 0
10, 0, 6, 0
11, 0, 7, 0
12, 0, 8, 0
13, 0, 9, 0
14, 0, 10, 0
15, 0, 11, 0
16, 0, 12, 0
17, 0, 13, 0
18, 0, 14, 0
19, 0, 15, 0
20, 0, 16, 0
** ... 3111 like lines cut
*Element, TYPE=S4, ELSET=Eall
261, 347, 435, 632, 343
262, 632, 836, 868, 739
263, 739, 868, 887, 631
264, 567, 1117, 868, 836
265, 1117, 974, 1179, 1104
266, 1591, 1531, 1713, 1688
267, 1688, 1820, 1831, 1720
268, 2179, 2401, 2523, 2360
269, 2360, 2523, 2646, 2454
270, 2401, 2605, 2731, 2523
271, 2646, 2523, 2731, 2725
272, 2646, 2725, 2840, 2636
273, 2841, 3027, 3068, 2919
274, 570, 406, 301, 429
275, 406, 570, 698, 538
276, 429, 724, 888, 570
277, 698, 570, 888, 728
278, 1713, 1531, 1414, 1553
279, 1553, 1812, 1956, 1713
280, 1688, 1713, 1956, 1820
** ... 2980 like lines cut



***********************************************************
** Element sets for materials and FEM element type (solid, shell, beam, fluid)
** written by write_element_sets_material_and_femelement_type function
*ELSET,ELSET=SolidMaterialElementGeometry2D
Eall

***********************************************************
** Node sets for prescribed displacement constraint
** written by write_node_sets_constraints_displacement function
** FemConstraintDisplacement
*NSET,NSET=FemConstraintDisplacement
1,
2,
5,
6,
7,
8,
9,
10,
11,
12,
13,
14,
15,
16,
17,
18,
19,
20,
21,
22,
** ... 11 like lines cut
** FemConstraintDisplacement001
*NSET,NSET=FemConstraintDisplacement001
3,

***********************************************************
** Materials
** written by write_materials function
** Young's modulus unit is MPa = N/mm2
** FreeCAD material name: CalculiX-Steel
** SolidMaterial
*MATERIAL, NAME=SolidMaterial
*ELASTIC
210000, 0.300

***********************************************************
** Sections
** written by write_femelementsets function
*SHELL SECTION, ELSET=SolidMaterialElementGeometry2D, MATERIAL=SolidMaterial
1 

***********************************************************
** At least one step is needed to run an CalculiX analysis of FreeCAD
** written by write_step_begin function
*STEP
*STATIC


***********************************************************
** Displacement constraint applied
** written by write_constraints_displacement function
** FemConstraintDisplacement
*BOUNDARY
FemConstraintDisplacement,1
FemConstraintDisplacement,3
** FemConstraintDisplacement001
*BOUNDARY
FemConstraintDisplacement001,2
FemConstraintDisplacement001,3


***********************************************************
** Node loads Constraints
** written by write_constraints_force function
*CLOAD
** FemConstraintForce
** node load on shape: Plane:Vertex2
2,2,-1.0000000000000E+02



***********************************************************
** Outputs --> frd file
** written by write_outputs_types function
*NODE FILE, OUTPUT=2d
U
*EL FILE
S, E
** outputs --> dat file
*NODE PRINT , NSET=Nall 
U 
*EL PRINT , ELSET=Eall 
S 

***********************************************************
** written by write_step_end function
*END STEP 

***********************************************************
** CalculiX Input file
** written by write_footer function
**   written by    --> FreeCAD 0.17.10993 (Git)
**   written on    --> Mon May 08 16:00:29 2017
**   file name     --> 
**   analysis name --> Analysis
**
**
**
**   Units
**
**   Geometry (mesh data)        --> mm
**   Materials (Young's modulus) --> N/mm2 = MPa
**   Loads (nodal loads)         --> N
**
